European  Gridlabd Model/output_voltage_566.csv
# output_voltage_566.csv run at 2012-04-08 09:30:00 UTC on 1888 nodes
node_name,voltA_mag,voltA_angle,voltB_mag,voltB_angle,voltC_mag,voltC_angle
SourceBus,6668.395609,0.000000,6668.395609,4.188790,6668.395609,2.094395
Bus1,252.096316,-0.524347,252.110455,3.664621,252.123822,1.570255
Bus2,252.085580,-0.524337,252.103706,3.664618,252.119463,1.570263
Bus3,252.084454,-0.524336,252.102998,3.664617,252.119006,1.570263
Bus4,252.083400,-0.524335,252.102335,3.664617,252.118578,1.570264
Bus5,252.082480,-0.524335,252.101757,3.664617,252.118205,1.570265
Bus6,252.081032,-0.524333,252.100847,3.664616,252.117617,1.570266
Bus7,251.982409,-0.524244,252.038851,3.664581,252.077582,1.570339
Bus8,251.977992,-0.524240,252.036074,3.664580,252.075789,1.570343
Bus9,251.974316,-0.524237,252.033763,3.664579,252.074296,1.570345
Bus10,251.971090,-0.524234,252.031735,3.664577,252.072987,1.570348
Bus11,251.968682,-0.524232,252.030222,3.664577,252.072009,1.570349
Bus12,251.966422,-0.524230,252.028801,3.664576,252.071092,1.570351
Bus13,251.965032,-0.524228,252.027927,3.664575,252.070528,1.570352
Bus14,251.961573,-0.524225,252.025752,3.664574,252.069123,1.570355
Bus15,251.933546,-0.524200,252.008134,3.664564,252.057746,1.570376
Bus16,251.933546,-0.524200,252.008134,3.664564,252.057746,1.570376
Bus17,251.899559,-0.524169,251.986769,3.664552,252.043950,1.570401
Bus18,251.933546,-0.524200,252.008134,3.664564,252.057746,1.570376
Bus19,251.897220,-0.524167,251.985299,3.664551,252.043000,1.570403
Bus20,251.933546,-0.524200,252.008134,3.664564,252.057746,1.570376
Bus21,251.894594,-0.524164,251.983648,3.664551,252.041934,1.570404
Bus22,251.933546,-0.524200,252.008134,3.664564,252.057746,1.570376
Bus23,251.890319,-0.524161,251.980960,3.664549,252.040199,1.570408
Bus24,251.933546,-0.524200,252.008134,3.664564,252.057746,1.570376
Bus25,251.882541,-0.524153,251.976071,3.664546,252.037042,1.570413
Bus26,251.933546,-0.524200,252.008134,3.664564,252.057746,1.570376
Bus27,251.874412,-0.524145,251.976095,3.664546,252.037130,1.570414
Bus28,251.794527,-0.524074,251.913878,3.664529,251.994329,1.570474
Bus29,251.933546,-0.524200,252.008134,3.664564,252.057746,1.570376
Bus30,251.873517,-0.524145,251.976098,3.664546,252.037140,1.570414
Bus31,251.873103,-0.524144,251.976099,3.664546,252.037145,1.570414
Bus32,251.771096,-0.524052,251.897322,3.664524,251.982958,1.570491
Bus33,251.933546,-0.524200,252.008134,3.664564,252.057746,1.570376
Bus34,251.871466,-0.524143,251.976104,3.664546,252.037163,1.570414
Bus35,251.873059,-0.524144,251.976099,3.664546,252.037145,1.570414
Bus36,251.771162,-0.524052,251.891315,3.664530,251.982976,1.570490
Bus37,251.698319,-0.523995,251.853058,3.664504,251.948013,1.570550
Bus38,251.933546,-0.524200,252.008134,3.664564,252.057746,1.570376
Bus39,251.872995,-0.524144,251.976099,3.664546,252.037146,1.570414
Bus40,251.771165,-0.524052,251.891017,3.664530,251.982977,1.570490
Bus41,251.771168,-0.524052,251.890766,3.664530,251.982978,1.570490
Bus42,251.647816,-0.523955,251.822342,3.664491,251.923765,1.570591
Bus43,251.698319,-0.523995,251.853058,3.664504,251.948013,1.570550
Bus44,251.933546,-0.524200,252.008134,3.664564,252.057746,1.570376
Bus45,251.872914,-0.524144,251.976099,3.664546,252.037147,1.570414
Bus46,251.771167,-0.524052,251.890882,3.664530,251.982977,1.570490
Bus47,251.771182,-0.524052,251.889446,3.664532,251.982982,1.570490
Bus48,251.609654,-0.523925,251.799131,3.664480,251.905441,1.570622
Bus49,251.698319,-0.523995,251.853058,3.664504,251.948013,1.570550
Bus50,251.933546,-0.524200,252.008134,3.664564,252.057746,1.570376
Bus51,251.872715,-0.524144,251.976100,3.664546,252.037149,1.570414
Bus52,251.771168,-0.524052,251.890740,3.664530,251.982978,1.570490
Bus53,251.604152,-0.523921,251.795784,3.664479,251.902799,1.570627
Bus54,251.609654,-0.523925,251.799131,3.664480,251.905441,1.570622
Bus55,251.698319,-0.523995,251.853058,3.664504,251.948013,1.570550
Bus56,251.933546,-0.524200,252.008134,3.664564,252.057746,1.570376
Bus57,251.872544,-0.524144,251.976101,3.664546,252.037151,1.570414
Bus58,251.771170,-0.524052,251.890604,3.664530,251.982978,1.570490
Bus59,251.579228,-0.523901,251.780625,3.664472,251.890832,1.570647
Bus60,251.609654,-0.523925,251.799131,3.664480,251.905441,1.570622
Bus61,251.698319,-0.523995,251.853058,3.664504,251.948013,1.570550
Bus62,251.933546,-0.524200,252.008134,3.664564,252.057746,1.570376
Bus63,251.871727,-0.524143,251.976103,3.664546,252.037160,1.570414
Bus64,251.771171,-0.524052,251.890523,3.664531,251.982978,1.570490
Bus65,251.575005,-0.523898,251.777461,3.664472,251.888119,1.570650
Bus66,251.561134,-0.523883,251.780680,3.664471,251.891030,1.570648
Bus67,251.609654,-0.523925,251.799131,3.664480,251.905441,1.570622
Bus68,251.698319,-0.523995,251.853058,3.664504,251.948013,1.570550
Bus69,251.933546,-0.524200,252.008134,3.664564,252.057746,1.570376
Bus70,251.868839,-0.524140,251.976112,3.664546,252.037191,1.570414
Bus71,251.771172,-0.524052,251.890364,3.664531,251.982979,1.570490
Bus72,251.525105,-0.523860,251.740080,3.664474,251.856059,1.570687
Bus73,251.554649,-0.523877,251.780699,3.664471,251.891101,1.570648
Bus74,251.558774,-0.523881,251.780687,3.664471,251.891056,1.570648
Bus75,251.609654,-0.523925,251.799131,3.664480,251.905441,1.570622
Bus76,251.698319,-0.523995,251.853058,3.664504,251.948013,1.570550
Bus77,251.933546,-0.524200,252.008134,3.664564,252.057746,1.570376
Bus78,251.771181,-0.524052,251.889556,3.664531,251.982981,1.570490
Bus79,251.507711,-0.523846,251.727050,3.664474,251.844884,1.570699
Bus80,251.609654,-0.523925,251.799131,3.664480,251.905441,1.570622
Bus81,251.698319,-0.523995,251.853058,3.664504,251.948013,1.570550
Bus82,251.933546,-0.524200,252.008134,3.664564,252.057746,1.570376
Bus83,251.771215,-0.524052,251.886512,3.664534,251.982990,1.570490
Bus84,251.503915,-0.523843,251.724206,3.664474,251.842446,1.570702
Bus85,251.609654,-0.523925,251.799131,3.664480,251.905441,1.570622
Bus86,251.698319,-0.523995,251.853058,3.664504,251.948013,1.570550
Bus87,251.933546,-0.524200,252.008134,3.664564,252.057746,1.570376
Bus88,251.496218,-0.523838,251.718440,3.664474,251.837500,1.570708
Bus89,251.609654,-0.523925,251.799131,3.664480,251.905441,1.570622
Bus90,251.698319,-0.523995,251.853058,3.664504,251.948013,1.570550
Bus91,251.933546,-0.524200,252.008134,3.664564,252.057746,1.570376
Bus92,251.488959,-0.523832,251.713002,3.664475,251.832836,1.570713
Bus93,251.698319,-0.523995,251.853058,3.664504,251.948013,1.570550
Bus94,251.933546,-0.524200,252.008134,3.664564,252.057746,1.570376
Bus95,251.484740,-0.523829,251.709841,3.664475,251.830126,1.570716
Bus96,251.698319,-0.523995,251.853058,3.664504,251.948013,1.570550
Bus97,251.933546,-0.524200,252.008134,3.664564,252.057746,1.570376
Bus98,251.481953,-0.523827,251.707754,3.664475,251.828335,1.570718
Bus99,251.698319,-0.523995,251.853058,3.664504,251.948013,1.570550
Bus100,251.933546,-0.524200,252.008134,3.664564,252.057746,1.570376
Bus101,251.478106,-0.523824,251.704872,3.664475,251.825864,1.570721
Bus102,251.698319,-0.523995,251.853058,3.664504,251.948013,1.570550
Bus103,251.933546,-0.524200,252.008134,3.664564,252.057746,1.570376
Bus104,251.478098,-0.523824,251.704750,3.664475,251.825874,1.570721
Bus105,251.475590,-0.523823,251.703585,3.664475,251.824175,1.570724
Bus106,251.698319,-0.523995,251.853058,3.664504,251.948013,1.570550
Bus107,251.478088,-0.523823,251.704603,3.664475,251.825887,1.570721
Bus108,251.474163,-0.523822,251.702856,3.664475,251.823218,1.570725
Bus109,251.698319,-0.523995,251.853058,3.664504,251.948013,1.570550
Bus110,251.478077,-0.523823,251.704433,3.664475,251.825902,1.570721
Bus111,251.417869,-0.523798,251.674071,3.664470,251.785438,1.570785
Bus112,251.698319,-0.523995,251.853058,3.664504,251.948013,1.570550
Bus113,251.478060,-0.523823,251.704174,3.664474,251.825925,1.570720
Bus114,251.412230,-0.523796,251.671187,3.664470,251.781653,1.570791
Bus115,251.698319,-0.523995,251.853058,3.664504,251.948013,1.570550
Bus116,251.478038,-0.523823,251.703840,3.664474,251.825954,1.570720
Bus117,251.412147,-0.523796,251.671152,3.664470,251.781545,1.570791
Bus118,251.395543,-0.523794,251.662619,3.664463,251.770980,1.570803
Bus119,251.698319,-0.523995,251.853058,3.664504,251.948013,1.570550
Bus120,251.478023,-0.523823,251.703600,3.664474,251.825975,1.570720
Bus121,251.412147,-0.523796,251.671152,3.664470,251.781545,1.570791
Bus122,251.412107,-0.523796,251.671135,3.664470,251.781493,1.570791
Bus123,251.365451,-0.523790,251.647166,3.664452,251.751733,1.570826
Bus124,251.698319,-0.523995,251.853058,3.664504,251.948013,1.570550
Bus125,251.478001,-0.523822,251.703261,3.664474,251.826004,1.570719
Bus126,251.412147,-0.523796,251.671152,3.664470,251.781545,1.570791
Bus127,251.411918,-0.523797,251.671054,3.664469,251.781246,1.570790
Bus128,251.351919,-0.523789,251.640217,3.664447,251.743077,1.570836
Bus129,251.698319,-0.523995,251.853058,3.664504,251.948013,1.570550
Bus130,251.477977,-0.523822,251.702895,3.664473,251.826036,1.570719
Bus131,251.412147,-0.523796,251.671152,3.664470,251.781545,1.570791
Bus132,251.409101,-0.523794,251.671063,3.664469,251.781277,1.570791
Bus133,251.412218,-0.523797,251.670739,3.664470,251.780288,1.570789
Bus134,251.347893,-0.523788,251.638149,3.664445,251.740502,1.570839
Bus135,251.698319,-0.523995,251.853058,3.664504,251.948013,1.570550
Bus136,251.477954,-0.523822,251.702550,3.664473,251.826067,1.570718
Bus137,251.412147,-0.523796,251.671152,3.664470,251.781545,1.570791
Bus138,251.408859,-0.523794,251.671063,3.664469,251.781279,1.570791
Bus139,251.412440,-0.523798,251.670505,3.664471,251.779575,1.570788
Bus140,251.343348,-0.523788,251.635816,3.664444,251.737595,1.570842
Bus141,251.698319,-0.523995,251.853058,3.664504,251.948013,1.570550
Bus142,251.477917,-0.523821,251.701982,3.664472,251.826116,1.570717
Bus143,251.412147,-0.523796,251.671152,3.664470,251.781545,1.570791
Bus144,251.408621,-0.523793,251.671064,3.664469,251.781282,1.570791
Bus145,251.412590,-0.523799,251.670348,3.664472,251.779098,1.570787
Bus146,251.339074,-0.523787,251.633621,3.664442,251.734861,1.570845
Bus147,251.698319,-0.523995,251.853058,3.664504,251.948013,1.570550
Bus148,251.477740,-0.523819,251.699280,3.664470,251.826352,1.570714
Bus149,251.412147,-0.523796,251.671152,3.664470,251.781545,1.570791
Bus150,251.408429,-0.523793,251.671065,3.664469,251.781284,1.570791
Bus151,251.412642,-0.523799,251.670504,3.664472,251.778589,1.570787
Bus152,251.412621,-0.523799,251.667495,3.664474,251.779106,1.570787
Bus153,251.334086,-0.523787,251.631060,3.664440,251.731671,1.570849
Bus154,251.698319,-0.523995,251.853058,3.664504,251.948013,1.570550
Bus155,251.477702,-0.523818,251.698692,3.664470,251.826404,1.570713
Bus156,251.412147,-0.523796,251.671152,3.664470,251.781545,1.570791
Bus157,251.408140,-0.523793,251.671066,3.664469,251.781287,1.570791
Bus158,251.412781,-0.523802,251.670920,3.664474,251.777239,1.570787
Bus159,251.412623,-0.523799,251.667322,3.664475,251.779107,1.570787
Bus160,251.332651,-0.523786,251.630323,3.664440,251.730753,1.570850
Bus161,251.698319,-0.523995,251.853058,3.664504,251.948013,1.570550
Bus162,251.477930,-0.523817,251.677885,3.664490,251.826466,1.570712
Bus163,251.477101,-0.523818,251.697945,3.664468,251.826446,1.570712
Bus164,251.412147,-0.523796,251.671152,3.664470,251.781545,1.570791
Bus165,251.407792,-0.523792,251.671067,3.664469,251.781291,1.570791
Bus166,251.412829,-0.523802,251.671064,3.664474,251.776771,1.570787
Bus167,251.412625,-0.523799,251.667163,3.664475,251.779107,1.570787
Bus168,251.324498,-0.523786,251.626136,3.664437,251.725539,1.570856
Bus169,251.698319,-0.523995,251.853058,3.664504,251.948013,1.570550
Bus170,251.477973,-0.523817,251.673954,3.664494,251.826478,1.570711
Bus171,251.476302,-0.523818,251.696954,3.664466,251.826503,1.570712
Bus172,251.412147,-0.523796,251.671152,3.664470,251.781545,1.570791
Bus173,251.407530,-0.523792,251.671067,3.664469,251.781294,1.570791
Bus174,251.412829,-0.523802,251.671064,3.664474,251.776771,1.570787
Bus175,251.412841,-0.523803,251.671106,3.664475,251.772977,1.570790
Bus176,251.412625,-0.523799,251.667097,3.664475,251.779107,1.570787
Bus177,251.319893,-0.523785,251.623772,3.664435,251.722593,1.570860
Bus178,251.478061,-0.523817,251.665844,3.664502,251.826502,1.570711
Bus179,251.476160,-0.523817,251.696764,3.664466,251.826589,1.570711
Bus180,251.476305,-0.523818,251.696965,3.664466,251.825514,1.570713
Bus181,251.412147,-0.523796,251.671152,3.664470,251.781545,1.570791
Bus182,251.407226,-0.523792,251.671068,3.664469,251.781297,1.570791
Bus183,251.412829,-0.523802,251.671064,3.664474,251.776771,1.570787
Bus184,251.412842,-0.523803,251.671110,3.664475,251.772567,1.570791
Bus185,251.412627,-0.523799,251.666955,3.664475,251.779108,1.570787
Bus186,251.316475,-0.523785,251.622016,3.664434,251.720407,1.570862
Bus187,251.475600,-0.523817,251.696014,3.664464,251.826926,1.570711
Bus188,251.476318,-0.523818,251.697010,3.664466,251.821420,1.570717
Bus189,251.412147,-0.523796,251.671152,3.664470,251.781545,1.570791
Bus190,251.406940,-0.523792,251.671069,3.664469,251.781300,1.570791
Bus191,251.412829,-0.523802,251.671064,3.664474,251.776771,1.570787
Bus192,251.412829,-0.523802,251.671064,3.664474,251.776771,1.570787
Bus193,251.412843,-0.523803,251.671114,3.664475,251.772171,1.570791
Bus194,251.412631,-0.523799,251.666594,3.664475,251.779109,1.570787
Bus195,251.313402,-0.523784,251.620438,3.664432,251.718441,1.570865
Bus196,251.474600,-0.523815,251.694676,3.664461,251.827528,1.570710
Bus197,251.476319,-0.523818,251.697015,3.664466,251.820927,1.570717
Bus198,251.476318,-0.523818,251.697012,3.664466,251.821243,1.570717
Bus199,251.412147,-0.523796,251.671152,3.664470,251.781545,1.570791
Bus200,251.406632,-0.523791,251.671070,3.664469,251.781304,1.570791
...
SourceBus_1,6667.621530,-0.000155,6667.808527,4.188659,6667.851435,2.094228
LOAD1,251.871466,-0.524143,251.976104,3.664546,252.037163,1.570414
LOAD2,251.771182,-0.524052,251.889446,3.664532,251.982982,1.570490
LOAD3,251.868839,-0.524140,251.976112,3.664546,252.037191,1.570414
LOAD4,251.554649,-0.523877,251.780699,3.664471,251.891101,1.570648
LOAD5,251.558774,-0.523881,251.780687,3.664471,251.891056,1.570648
LOAD6,251.771215,-0.524052,251.886512,3.664534,251.982990,1.570490
LOAD7,251.478061,-0.523817,251.665844,3.664502,251.826502,1.570711
LOAD8,251.476323,-0.523818,251.697029,3.664466,251.819680,1.570718
LOAD9,251.454063,-0.523795,251.694738,3.664460,251.827753,1.570711
LOAD10,251.475227,-0.523813,251.673278,3.664481,251.827724,1.570707
LOAD11,251.475192,-0.523813,251.676477,3.664477,251.827714,1.570707
LOAD12,251.476322,-0.523818,251.697024,3.664466,251.820129,1.570718
LOAD13,251.412658,-0.523798,251.664130,3.664478,251.779116,1.570787
LOAD14,251.401342,-0.523786,251.671086,3.664469,251.781361,1.570791
LOAD15,251.412687,-0.523798,251.661461,3.664480,251.779124,1.570787
LOAD16,251.412877,-0.523803,251.671237,3.664475,251.760959,1.570802
LOAD17,251.412858,-0.523803,251.671167,3.664475,251.767381,1.570796
LOAD18,251.210549,-0.523808,251.568930,3.664448,251.562786,1.571028
LOAD19,251.266134,-0.523780,251.595688,3.664417,251.667415,1.570919
LOAD20,251.193297,-0.523751,251.577341,3.664407,251.653438,1.570950
LOAD21,251.274791,-0.523772,251.605144,3.664421,251.699455,1.570887
LOAD22,251.194553,-0.523753,251.577337,3.664407,251.653424,1.570950
LOAD23,251.201687,-0.523784,251.546610,3.664452,251.617718,1.570968
LOAD24,251.225071,-0.523755,251.566913,3.664394,251.655940,1.570930
LOAD25,251.111076,-0.523635,251.480343,3.664412,251.608809,1.570969
LOAD26,251.133647,-0.523627,251.475719,3.664313,251.666123,1.570919
LOAD27,251.205402,-0.523734,251.550251,3.664379,251.646580,1.570938
LOAD28,251.205412,-0.523734,251.550287,3.664379,251.643257,1.570941
LOAD29,251.115582,-0.523619,251.454577,3.664441,251.598874,1.570943
LOAD30,251.116752,-0.523640,251.480326,3.664413,251.608746,1.570969
LOAD31,251.117754,-0.523621,251.454570,3.664441,251.598851,1.570943
LOAD32,251.111154,-0.523603,251.470459,3.664280,251.640900,1.570952
LOAD33,251.145302,-0.523637,251.429877,3.664499,251.557641,1.570927
LOAD34,251.137023,-0.523677,251.500723,3.664413,251.612497,1.570974
LOAD35,251.147930,-0.523624,251.401722,3.664524,251.580728,1.570891
LOAD36,251.142764,-0.523626,251.401229,3.664513,251.587339,1.570907
LOAD37,251.142684,-0.523627,251.408467,3.664506,251.587318,1.570907
LOAD38,251.083625,-0.523560,251.449423,3.664243,251.673116,1.570933
LOAD39,251.057572,-0.523512,251.424971,3.664209,251.665439,1.570940
LOAD40,251.037529,-0.523463,251.399774,3.664180,251.687705,1.570916
LOAD41,250.995183,-0.523281,251.288736,3.664168,251.710035,1.570831
LOAD42,251.057567,-0.523512,251.424952,3.664209,251.667117,1.570939
LOAD43,250.978875,-0.523191,251.245633,3.664159,251.708440,1.570787
LOAD44,251.125240,-0.523617,251.470031,3.664304,251.666149,1.570921
LOAD45,250.995236,-0.523281,251.283871,3.664173,251.710049,1.570831
LOAD46,251.032887,-0.523506,251.445736,3.664227,251.675659,1.570936
LOAD47,250.978887,-0.523191,251.245678,3.664159,251.704304,1.570791
LOAD48,251.022647,-0.523496,251.445767,3.664226,251.675771,1.570937
LOAD49,251.025977,-0.523499,251.445757,3.664227,251.675735,1.570937
LOAD50,250.976695,-0.522999,251.027160,3.664292,251.744953,1.570612
LOAD51,250.961670,-0.523335,251.362525,3.664141,251.702005,1.570902
LOAD52,250.919482,-0.523025,251.177987,3.664146,251.739852,1.570706
LOAD53,250.976695,-0.522999,251.067115,3.664252,251.744953,1.570612
LOAD54,250.932119,-0.523306,251.362614,3.664139,251.702328,1.570903
LOAD55,250.907644,-0.523013,251.178099,3.664144,251.740257,1.570707
